*KEYWORD
*TITLE
PyLCSS demo: 30 mm steel cube vs rigid wall @ 5 m/s
*CONTROL_TERMINATION
4.0
*DATABASE_BINARY_D3PLOT
0.1
*NODE
1, 0.0000, 0.0000, 0.0000
2, 10.0000, 0.0000, 0.0000
3, 20.0000, 0.0000, 0.0000
4, 30.0000, 0.0000, 0.0000
5, 0.0000, 10.0000, 0.0000
6, 10.0000, 10.0000, 0.0000
7, 20.0000, 10.0000, 0.0000
8, 30.0000, 10.0000, 0.0000
9, 0.0000, 20.0000, 0.0000
10, 10.0000, 20.0000, 0.0000
11, 20.0000, 20.0000, 0.0000
12, 30.0000, 20.0000, 0.0000
13, 0.0000, 30.0000, 0.0000
14, 10.0000, 30.0000, 0.0000
15, 20.0000, 30.0000, 0.0000
16, 30.0000, 30.0000, 0.0000
17, 0.0000, 0.0000, 10.0000
18, 10.0000, 0.0000, 10.0000
19, 20.0000, 0.0000, 10.0000
20, 30.0000, 0.0000, 10.0000
$ ... 44 like lines cut
*ELEMENT_SOLID
1, 1, 1, 2, 6, 5, 17, 18, 22, 21
2, 1, 2, 3, 7, 6, 18, 19, 23, 22
3, 1, 3, 4, 8, 7, 19, 20, 24, 23
4, 1, 5, 6, 10, 9, 21, 22, 26, 25
5, 1, 6, 7, 11, 10, 22, 23, 27, 26
6, 1, 7, 8, 12, 11, 23, 24, 28, 27
7, 1, 9, 10, 14, 13, 25, 26, 30, 29
8, 1, 10, 11, 15, 14, 26, 27, 31, 30
9, 1, 11, 12, 16, 15, 27, 28, 32, 31
10, 1, 17, 18, 22, 21, 33, 34, 38, 37
11, 1, 18, 19, 23, 22, 34, 35, 39, 38
12, 1, 19, 20, 24, 23, 35, 36, 40, 39
13, 1, 21, 22, 26, 25, 37, 38, 42, 41
14, 1, 22, 23, 27, 26, 38, 39, 43, 42
15, 1, 23, 24, 28, 27, 39, 40, 44, 43
16, 1, 25, 26, 30, 29, 41, 42, 46, 45
17, 1, 26, 27, 31, 30, 42, 43, 47, 46
18, 1, 27, 28, 32, 31, 43, 44, 48, 47
19, 1, 33, 34, 38, 37, 49, 50, 54, 53
20, 1, 34, 35, 39, 38, 50, 51, 55, 54
$ ... 7 like lines cut
*PART
demo_cube
1, 1, 1
*SECTION_SOLID
1, 1
*MAT_PLASTIC_KINEMATIC
1, 7.85e-9, 210000.0, 0.30, 250.0, 1000.0, 0.0
*SET_NODE_LIST
1
1, 5, 9, 13, 17, 21, 25, 29
33, 37, 41, 45, 49, 53, 57, 61
*BOUNDARY_SPC_SET
1, 0, 1, 1, 1, 0, 0, 0
*SET_NODE_LIST
2
1, 2, 3, 4, 5, 6, 7, 8
9, 10, 11, 12, 13, 14, 15, 16
17, 18, 19, 20, 21, 22, 23, 24
25, 26, 27, 28, 29, 30, 31, 32
33, 34, 35, 36, 37, 38, 39, 40
41, 42, 43, 44, 45, 46, 47, 48
49, 50, 51, 52, 53, 54, 55, 56
57, 58, 59, 60, 61, 62, 63, 64
*INITIAL_VELOCITY_NODE_SET
2, 5.0, 0, 0, 0, 0, 0
*END
